Pcp_File_Version=5
* METEOROLOGICAL PARAMETERS AND INFORMATION |||||||||||||||||||||||||||||||
 MeteoRecords Radiation Penman-Hargreaves
          100        1       f
  lEnBal  lDaily  lDummy  lDummy  lDummy  lDummy  lDummy  lDummy  lDummy  lDummy
       f       f       f       f       f       t       f       f       f       f
 Latitude  Altitude
       40        110
 ShortWaveRadA  ShortWaveRadB
          0.25            0.5
 LongWaveRadA   LongWaveRadB
           0.9            0.1
 LongWaveRadA1  LongWaveRadB1
          0.34         -0.139
 WindHeight     TempHeight
        200            200
 iCrop (=0: no crop, =1: constant, =2: table, =3: daily)  SunShine  RelativeHum
         0                                                3         0
  CloudFactAC    CloudFactBC
          1.35          -0.35
    Albedo
      0.23
Daily values
       t        Rad        TMax        TMin     RHMean      Wind    SunHours CropHeight     Albedo   LAI(SCF)      rRoot
      [T]  [MJ/m2/d]       [C]         [C]       [%]     [km/d]     [hour]      [L]           [-]        [-]        [L]
         1        300         20         10         95         30          4 
         2        300         20         10         95         30          4 
         3        300         20         10         95         30          4 
         4        300         20         10         95         30          4 
         5        300         20         10         95         30          4 
         6        300         20         10         95         30          4 
         7        300         20         10         95         30          4 
         8        300         20         10         95         30          4 
         9        300         20         10         95         30          4 
        10        300         20         10         95         30          4 
        11        300         20         10         95         30          4 
        12        300         20         10         95         30          4 
        13        300         20         10         95         30          4 
        14        300         20         10         95         30          4 
        15        300         20         10         95         30          4 
        16        300         20         10         95         30          4 
        17        300         20         10         95         30          4 
        18        300         20         10         95         30          4 
        19        300         20         10         95         30          4 
        20        300         20         10         95         30          4 
        21        300         20         10         95         30          4 
        22        300         20         10         95         30          4 
        23        300         20         10         95         30          4 
        24        300         20         10         95         30          4 
        25        300         20         10         95         30          4 
        26        300         20         10         95         30          4 
        27        300         20         10         95         30          4 
        28        300         20         10         95         30          4 
        29        300         20         10         95         30          4 
        30        300         20         10         95         30          4 
        31        300         20         10         95         30          4 
        32        300         20         10         95         30          4 
        33        300         20         10         95         30          4 
        34        300         20         10         95         30          4 
        35        300         20         10         95         30          4 
        36        300         20         10         95         30          4 
        37        300         20         10         95         30          4 
        38        300         20         10         95         30          4 
        39        300         20         10         95         30          4 
        40        300         20         10         95         30          4 
        41        300         20         10         95         30          4 
        42        300         20         10         95         30          4 
        43        300         20         10         95         30          4 
        44        300         20         10         95         30          4 
        45        300         20         10         95         30          4 
        46        300         20         10         95         30          4 
        47        300         20         10         95         30          4 
        48        300         20         10         95         30          4 
        49        300         20         10         95         30          4 
        50        300         20         10         95         30          4 
        51        300         20         10         95         30          4 
        52        300         20         10         95         30          4 
        53        300         20         10         95         30          4 
        54        300         20         10         95         30          4 
        55        300         20         10         95         30          4 
        56        300         20         10         95         30          4 
        57        300         20         10         95         30          4 
        58        300         20         10         95         30          4 
        59        300         20         10         95         30          4 
        60        300         20         10         95         30          4 
        61        300         20         10         95         30          4 
        62        300         20         10         95         30          4 
        63        300         20         10         95         30          4 
        64        300         20         10         95         30          4 
        65        300         20         10         95         30          4 
        66        300         20         10         95         30          4 
        67        300         20         10         95         30          4 
        68        300         20         10         95         30          4 
        69        300         20         10         95         30          4 
        70        300         20         10         95         30          4 
        71        300         20         10         95         30          4 
        72        300         20         10         95         30          4 
        73        300         20         10         95         30          4 
        74        300         20         10         95         30          4 
        75        300         20         10         95         30          4 
        76        300         20         10         95         30          4 
        77        300         20         10         95         30          4 
        78        300         20         10         95         30          4 
        79        300         20         10         95         30          4 
        80        300         20         10         95         30          4 
        81        300         20         10         95         30          4 
        82        300         20         10         95         30          4 
        83        300         20         10         95         30          4 
        84        300         20         10         95         30          4 
        85        300         20         10         95         30          4 
        86        300         20         10         95         30          4 
        87        300         20         10         95         30          4 
        88        300         20         10         95         30          4 
        89        300         20         10         95         30          4 
        90        300         20         10         95         30          4 
        91        300         20         10         95         30          4 
        92        300         20         10         95         30          4 
        93        300         20         10         95         30          4 
        94        300         20         10         95         30          4 
        95        300         20         10         95         30          4 
        96        300         20         10         95         30          4 
        97        300         20         10         95         30          4 
        98        300         20         10         95         30          4 
        99        300         20         10         95         30          4 
       100        300         20         10         95         30          4 
end *** END OF INPUT FILE 'METEO.IN' **********************************
