Pcp_File_Version=5
*** BLOCK I: ATMOSPHERIC INFORMATION  **********************************
   MaxAL                    (MaxAL = number of atmospheric data-records)
    698
 DailyVar  SinusVar  lLay  lBCCycles lInterc lHeadInt lDummy  lDummy  lDummy  lDummy
       f       f       f       f       f       f       f       f       f       f
 hCritS                 (max. allowed pressure head at the soil surface)
      0
       tAtm        Prec       rSoil       rRoot      hCritA          rB          hB          ht        tTop        tBot        Ampl        cTop        cBot   RootDepth
          1           0     0.03924           0      100000           0           0           0           0           0           0           0           0 
          2           0     0.05088           0      100000           0           0           0           0           0           0           0           0 
          3           0     0.04124           0      100000           0           0           0           0           0           0           0           0 
          4           0        0.04           0      100000           0           0           0           0           0           0           0           0 
          5           0      0.0319           0      100000           0           0           0           0           0           0           0           0 
          6           0     0.05296           0      100000           0           0           0           0           0           0           0           0 
          7       0.127    0.005504           0      100000           0           0           0           0           0           0        12.7           0 
          8           0    0.001965           0      100000           0           0           0           0           0           0           0           0 
          9           0    0.005053           0      100000           0           0           0           0           0           0           0           0 
         10           0     0.02971           0      100000           0           0           0           0           0           0           0           0 
         11           0     0.03837           0      100000           0           0           0           0           0           0           0           0 
         12           0     0.04536           0      100000           0           0           0           0           0           0           0           0 
         13           0     0.03887           0      100000           0           0           0           0           0           0           0           0 
         14           0     0.01097           0      100000           0           0           0           0           0           0           0           0 
         15           0     0.03221           0      100000           0           0           0           0           0           0           0           0 
         16           0     0.01079           0      100000           0           0           0           0           0           0           0           0 
         17           0     0.02863           0      100000           0           0           0           0           0           0           0           0 
         18           0     0.01152           0      100000           0           0           0           0           0           0           0           0 
         19           0     0.03321           0      100000           0           0           0           0           0           0           0           0 
         20           0     0.01994           0      100000           0           0           0           0           0           0           0           0 
         21           0    0.003903           0      100000           0           0           0           0           0           0           0           0 
         22           0    0.003315           0      100000           0           0           0           0           0           0           0           0 
         23           0    0.004954           0      100000           0           0           0           0           0           0           0           0 
         24           0     0.01441           0      100000           0           0           0           0           0           0           0           0 
         25           0    0.003118           0      100000           0           0           0           0           0           0           0           0 
         26           0    0.003558           0      100000           0           0           0           0           0           0           0           0 
         27           0    0.006247           0      100000           0           0           0           0           0           0           0           0 
         28           0     0.02039           0      100000           0           0           0           0           0           0           0           0 
         29           0    0.005386           0      100000           0           0           0           0           0           0           0           0 
         30           0     0.01164           0      100000           0           0           0           0           0           0           0           0 
         31           0     0.04738           0      100000           0           0           0           0           0           0           0           0 
         32           0     0.06308           0      100000           0           0           0           0           0           0           0           0 
         33      0.2032     0.03995           0      100000           0           0           0           0           0           0       20.32           0 
         34           0    0.007124           0      100000           0           0           0           0           0           0           0           0 
         35           0     0.01315           0      100000           0           0           0           0           0           0           0           0 
         36      0.2794    0.007141           0      100000           0           0           0           0           0           0       27.94           0 
         37           0    0.003786           0      100000           0           0           0           0           0           0           0           0 
         38           0    0.002792           0      100000           0           0           0           0           0           0           0           0 
         39           0    0.003685           0      100000           0           0           0           0           0           0           0           0 
         40           0    0.002295           0      100000           0           0           0           0           0           0           0           0 
         41           0    0.001684           0      100000           0           0           0           0           0           0           0           0 
         42           0    0.002219           0      100000           0           0           0           0           0           0           0           0 
         43           0    0.002997           0      100000           0           0           0           0           0           0           0           0 
         44           0    0.002433           0      100000           0           0           0           0           0           0           0           0 
         45           0    0.002001           0      100000           0           0           0           0           0           0           0           0 
         46           0    0.004749           0      100000           0           0           0           0           0           0           0           0 
         47           0    0.006576           0      100000           0           0           0           0           0           0           0           0 
         48           0     0.00714           0      100000           0           0           0           0           0           0           0           0 
         49           0     0.01399           0      100000           0           0           0           0           0           0           0           0 
         50           0     0.02775           0      100000           0           0           0           0           0           0           0           0 
         51           0     0.02101           0      100000           0           0           0           0           0           0           0           0 
         52           0     0.03872           0      100000           0           0           0           0           0           0           0           0 
         53           0     0.04775           0      100000           0           0           0           0           0           0           0           0 
         54           0     0.02063           0      100000           0           0           0           0           0           0           0           0 
         55           0     0.02034           0      100000           0           0           0           0           0           0           0           0 
         56           0     0.04431           0      100000           0           0           0           0           0           0           0           0 
         57           0     0.02639           0      100000           0           0           0           0           0           0           0           0 
         58           0     0.01217           0      100000           0           0           0           0           0           0           0           0 
         59           0     0.03766           0      100000           0           0           0           0           0           0           0           0 
         60           0     0.05842           0      100000           0           0           0           0           0           0           0           0 
         61           0     0.05584           0      100000           0           0           0           0           0           0           0           0 
         62           0     0.04977           0      100000           0           0           0           0           0           0           0           0 
         63           0     0.03311           0      100000           0           0           0           0           0           0           0           0 
         64           0     0.05235           0      100000           0           0           0           0           0           0           0           0 
         65           0     0.04345           0      100000           0           0           0           0           0           0           0           0 
         66           0     0.03308           0      100000           0           0           0           0           0           0           0           0 
         67      0.3302     0.02077           0      100000           0           0           0           0           0           0       33.02           0 
         68           0     0.01815           0      100000           0           0           0           0           0           0           0           0 
         69           0     0.02779           0      100000           0           0           0           0           0           0           0           0 
         70           0     0.02844           0      100000           0           0           0           0           0           0           0           0 
         71           0     0.04934           0      100000           0           0           0           0           0           0           0           0 
         72           0     0.03602           0      100000           0           0           0           0           0           0           0           0 
         73           0     0.04501           0      100000           0           0           0           0           0           0           0           0 
         74           0     0.03453           0      100000           0           0           0           0           0           0           0           0 
         75           0     0.03225           0      100000           0           0           0           0           0           0           0           0 
         76           0     0.03749           0      100000           0           0           0           0           0           0           0           0 
         77           0     0.05445           0      100000           0           0           0           0           0           0           0           0 
         78           0     0.06098           0      100000           0           0           0           0           0           0           0           0 
         79           0     0.04003           0      100000           0           0           0           0           0           0           0           0 
         80           0     0.04268           0      100000           0           0           0           0           0           0           0           0 
         81           0     0.04952           0      100000           0           0           0           0           0           0           0           0 
         82           0     0.02132           0      100000           0           0           0           0           0           0           0           0 
         83           0     0.05329           0      100000           0           0           0           0           0           0           0           0 
         84           0     0.02024           0      100000           0           0           0           0           0           0           0           0 
         85           0     0.03115           0      100000           0           0           0           0           0           0           0           0 
         86           0     0.05704           0      100000           0           0           0           0           0           0           0           0 
         87           0      0.1052           0      100000           0           0           0           0           0           0           0           0 
         88      0.1778     0.02809           0      100000           0           0           0           0           0           0       17.78           0 
         89           0     0.01967           0      100000           0           0           0           0           0           0           0           0 
         90           0     0.05483           0      100000           0           0           0           0           0           0           0           0 
         91           0      0.1029           0      100000           0           0           0           0           0           0           0           0 
         92           0     0.08435           0      100000           0           0           0           0           0           0           0           0 
         93           0     0.08482           0      100000           0           0           0           0           0           0           0           0 
         94           0     0.08567           0      100000           0           0           0           0           0           0           0           0 
         95      0.3048      0.0269           0      100000           0           0           0           0           0           0       30.48           0 
         96           0     0.05121           0      100000           0           0           0           0           0           0           0           0 
         97           0     0.09347           0      100000           0           0           0           0           0           0           0           0 
         98           0     0.05215           0      100000           0           0           0           0           0           0           0           0 
         99           0     0.06779           0      100000           0           0           0           0           0           0           0           0 
        100           0     0.06652           0      100000           0           0           0           0           0           0           0           0 
        101      0.1524     0.02434           0      100000           0           0           0           0           0           0       15.24           0 
        102           0     0.02919           0      100000           0           0           0           0           0           0           0           0 
        103           0     0.03054           0      100000           0           0           0           0           0           0           0           0 
        104       0.254     0.01824           0      100000           0           0           0           0           0           0        25.4           0 
        105       0.254     0.02722           0      100000           0           0           0           0           0           0        25.4           0 
        106           0     0.05314           0      100000           0           0           0           0           0           0           0           0 
        107           0     0.06371           0      100000           0           0           0           0           0           0           0           0 
        108      0.2032      0.0363           0      100000           0           0           0           0           0           0       20.32           0 
        109           0     0.02727           0      100000           0           0           0           0           0           0           0           0 
        110           0     0.03781           0      100000           0           0           0           0           0           0           0           0 
        111           0     0.06147           0      100000           0           0           0           0           0           0           0           0 
        112           0      0.0244           0      100000           0           0           0           0           0           0           0           0 
        113           0     0.02668           0      100000           0           0           0           0           0           0           0           0 
        114      0.2032     0.02248           0      100000           0           0           0           0           0           0       20.32           0 
        115      0.1524      0.0296           0      100000           0           0           0           0           0           0       15.24           0 
        116      0.2794     0.06213           0      100000           0           0           0           0           0           0       27.94           0 
        117           0     0.07441           0      100000           0           0           0           0           0           0           0           0 
        118           0     0.08533           0      100000           0           0           0           0           0           0           0           0 
        119           0     0.08564           0      100000           0           0           0           0           0           0           0           0 
        120           0      0.1285           0      100000           0           0           0           0           0           0           0           0 
        121           0     0.08855           0      100000           0           0           0           0           0           0           0           0 
        122      0.2286     0.04453           0      100000           0           0           0           0           0           0       22.86           0 
        123           0     0.06467           0      100000           0           0           0           0           0           0           0           0 
        124           0     0.07716           0      100000           0           0           0           0           0           0           0           0 
        125           0     0.06284           0      100000           0           0           0           0           0           0           0           0 
        126           0     0.08591           0      100000           0           0           0           0           0           0           0           0 
        127       1.168     0.02565           0      100000           0           0           0           0           0           0       116.8           0 
        128      0.4572     0.03189           0      100000           0           0           0           0           0           0       45.72           0 
        129       0.381     0.02382           0      100000           0           0           0           0           0           0        38.1           0 
        130           0     0.05783           0      100000           0           0           0           0           0           0           0           0 
        131           0     0.06105           0      100000           0           0           0           0           0           0           0           0 
        132           0     0.07663           0      100000           0           0           0           0           0           0           0           0 
        133           0     0.07877           0      100000           0           0           0           0           0           0           0           0 
        134           0     0.06394           0      100000           0           0           0           0           0           0           0           0 
        135           0     0.04066           0      100000           0           0           0           0           0           0           0           0 
        136           0     0.01141           0      100000           0           0           0           0           0           0           0           0 
        137           0           0           0      100000           0           0           0           0           0           0           0           0 
        138           0           0           0      100000           0           0           0           0           0           0           0           0 
        139      0.7874           0           0      100000           0           0           0           0           0           0       78.74           0 
        140       1.473           0           0      100000           0           0           0           0           0           0       147.3           0 
        141      0.4318           0           0      100000           0           0           0           0           0           0       43.18           0 
        142           0           0           0      100000           0           0           0           0           0           0           0           0 
        143       1.016           0           0      100000           0           0           0           0           0           0       101.6           0 
        144           0           0           0      100000           0           0           0           0           0           0           0           0 
        145           0           0           0      100000           0           0           0           0           0           0           0           0 
        146       2.184           0           0      100000           0           0           0           0           0           0       218.4           0 
        147           0           0           0      100000           0           0           0           0           0           0           0           0 
        148           0           0           0      100000           0           0           0           0           0           0           0           0 
        149           0           0           0      100000           0           0           0           0           0           0           0           0 
        150           0           0           0      100000           0           0           0           0           0           0           0           0 
        151           0           0           0      100000           0           0           0           0           0           0           0           0 
        152           0           0           0      100000           0           0           0           0           0           0           0           0 
        153           0           0           0      100000           0           0           0           0           0           0           0           0 
        154           0           0           0      100000           0           0           0           0           0           0           0           0 
        155           0           0           0      100000           0           0           0           0           0           0           0           0 
        156           0           0           0      100000           0           0           0           0           0           0           0           0 
        157           0           0           0      100000           0           0           0           0           0           0           0           0 
        158           0           0           0      100000           0           0           0           0           0           0           0           0 
        159           0           0           0      100000           0           0           0           0           0           0           0           0 
        160           0           0           0      100000           0           0           0           0           0           0           0           0 
        161      0.2286           0           0      100000           0           0           0           0           0           0       22.86           0 
        162           0           0           0      100000           0           0           0           0           0           0           0           0 
        163           0           0           0      100000           0           0           0           0           0           0           0           0 
        164           0           0           0      100000           0           0           0           0           0           0           0           0 
        165           0           0           0      100000           0           0           0           0           0           0           0           0 
        166           0           0           0      100000           0           0           0           0           0           0           0           0 
        167           0           0           0      100000           0           0           0           0           0           0           0           0 
        168           0           0           0      100000           0           0           0           0           0           0           0           0 
        169           0           0           0      100000           0           0           0           0           0           0           0           0 
        170           0           0           0      100000           0           0           0           0           0           0           0           0 
        171       1.422           0           0      100000           0           0           0           0           0           0       142.2           0 
        172       1.651           0           0      100000           0           0           0           0           0           0       165.1           0 
        173       1.651           0           0      100000           0           0           0           0           0           0       165.1           0 
        174       1.651           0           0      100000           0           0           0           0           0           0       165.1           0 
        175       0.381           0           0      100000           0           0           0           0           0           0        38.1           0 
        176       1.651           0           0      100000           0           0           0           0           0           0       165.1           0 
        177           0           0           0      100000           0           0           0           0           0           0           0           0 
        178       1.651           0           0      100000           0           0           0           0           0           0       165.1           0 
        179           0           0           0      100000           0           0           0           0           0           0           0           0 
        180       1.651           0           0      100000           0           0           0           0           0           0       165.1           0 
        181       1.651           0           0      100000           0           0           0           0           0           0       165.1           0 
        182           0           0           0      100000           0           0           0           0           0           0           0           0 
        183       1.651           0           0      100000           0           0           0           0           0           0       165.1           0 
        184           0           0           0      100000           0           0           0           0           0           0           0           0 
        185           0           0           0      100000           0           0           0           0           0           0           0           0 
        186           0           0           0      100000           0           0           0           0           0           0           0           0 
        187           0           0           0      100000           0           0           0           0           0           0           0           0 