Pcp_File_Version=5
*** BLOCK I: ATMOSPHERIC INFORMATION  **********************************
   MaxAL                    (MaxAL = number of atmospheric data-records)
   1698
 DailyVar  SinusVar  lLay  lBCCycles lInterc lHeadInt lDummy  lDummy  lDummy  lDummy
       f       f       f       f       f       f       f       f       f       f
 hCritS                 (max. allowed pressure head at the soil surface)
      0
       tAtm        Prec       rSoil       rRoot      hCritA          rB          hB          ht        tTop        tBot        Ampl        cTop        cBot   RootDepth
          1           0   0.0392396           0      100000           0           0           0           0           0           0           0           0 
          2           0     0.05088           0      100000           0           0           0           0           0           0           0           0 
          3           0   0.0412397           0      100000           0           0           0           0           0           0           0           0 
          4           0    0.040005           0      100000           0           0           0           0           0           0           0           0 
          5           0   0.0318964           0      100000           0           0           0           0           0           0           0           0 
          6           0   0.0529579           0      100000           0           0           0           0           0           0           0           0 
          7       0.127  0.00550401           0      100000           0           0           0           0           0           0        12.7           0 
          8           0  0.00196543           0      100000           0           0           0           0           0           0           0           0 
          9           0  0.00505272           0      100000           0           0           0           0           0           0           0           0 
         10           0   0.0297062           0      100000           0           0           0           0           0           0           0           0 
         11           0   0.0383665           0      100000           0           0           0           0           0           0           0           0 
         12           0   0.0453607           0      100000           0           0           0           0           0           0           0           0 
         13           0   0.0388666           0      100000           0           0           0           0           0           0           0           0 
         14           0   0.0109675           0      100000           0           0           0           0           0           0           0           0 
         15           0   0.0322082           0      100000           0           0           0           0           0           0           0           0 
         16           0   0.0107936           0      100000           0           0           0           0           0           0           0           0 
         17           0   0.0286349           0      100000           0           0           0           0           0           0           0           0 
         18           0   0.0115209           0      100000           0           0           0           0           0           0           0           0 
         19           0   0.0332128           0      100000           0           0           0           0           0           0           0           0 
         20           0   0.0199359           0      100000           0           0           0           0           0           0           0           0 
         21           0  0.00390259           0      100000           0           0           0           0           0           0           0           0 
         22           0  0.00331538           0      100000           0           0           0           0           0           0           0           0 
         23           0    0.004954           0      100000           0           0           0           0           0           0           0           0 
         24           0   0.0144066           0      100000           0           0           0           0           0           0           0           0 
         25           0   0.0031176           0      100000           0           0           0           0           0           0           0           0 
         26           0  0.00355763           0      100000           0           0           0           0           0           0           0           0 
         27           0  0.00624708           0      100000           0           0           0           0           0           0           0           0 
         28           0   0.0203863           0      100000           0           0           0           0           0           0           0           0 
         29           0  0.00538603           0      100000           0           0           0           0           0           0           0           0 
         30           0   0.0116437           0      100000           0           0           0           0           0           0           0           0 
         31           0   0.0473845           0      100000           0           0           0           0           0           0           0           0 
         32           0   0.0630768           0      100000           0           0           0           0           0           0           0           0 
         33      0.2032   0.0399452           0      100000           0           0           0           0           0           0       20.32           0 
         34           0  0.00712377           0      100000           0           0           0           0           0           0           0           0 
         35           0   0.0131493           0      100000           0           0           0           0           0           0           0           0 
         36      0.2794  0.00714067           0      100000           0           0           0           0           0           0       27.94           0 
         37           0  0.00378569           0      100000           0           0           0           0           0           0           0           0 
         38           0  0.00279184           0      100000           0           0           0           0           0           0           0           0 
         39           0  0.00368482           0      100000           0           0           0           0           0           0           0           0 
         40           0  0.00229452           0      100000           0           0           0           0           0           0           0           0 
         41           0  0.00168419           0      100000           0           0           0           0           0           0           0           0 
         42           0  0.00221853           0      100000           0           0           0           0           0           0           0           0 
         43           0  0.00299701           0      100000           0           0           0           0           0           0           0           0 
         44           0  0.00243267           0      100000           0           0           0           0           0           0           0           0 
         45           0  0.00200145           0      100000           0           0           0           0           0           0           0           0 
         46           0  0.00474912           0      100000           0           0           0           0           0           0           0           0 
         47           0  0.00657635           0      100000           0           0           0           0           0           0           0           0 
         48           0  0.00714009           0      100000           0           0           0           0           0           0           0           0 
         49           0   0.0139899           0      100000           0           0           0           0           0           0           0           0 
         50           0    0.027755           0      100000           0           0           0           0           0           0           0           0 
         51           0   0.0210071           0      100000           0           0           0           0           0           0           0           0 
         52           0   0.0387192           0      100000           0           0           0           0           0           0           0           0 
         53           0   0.0477467           0      100000           0           0           0           0           0           0           0           0 
         54           0   0.0206349           0      100000           0           0           0           0           0           0           0           0 
         55           0   0.0203362           0      100000           0           0           0           0           0           0           0           0 
         56           0   0.0443076           0      100000           0           0           0           0           0           0           0           0 
         57           0   0.0263866           0      100000           0           0           0           0           0           0           0           0 
         58           0   0.0121708           0      100000           0           0           0           0           0           0           0           0 
         59           0   0.0376622           0      100000           0           0           0           0           0           0           0           0 
         60           0   0.0584175           0      100000           0           0           0           0           0           0           0           0 
         61           0   0.0558421           0      100000           0           0           0           0           0           0           0           0 
         62           0   0.0497727           0      100000           0           0           0           0           0           0           0           0 
         63           0   0.0331092           0      100000           0           0           0           0           0           0           0           0 
         64           0   0.0523529           0      100000           0           0           0           0           0           0           0           0 
         65           0   0.0434463           0      100000           0           0           0           0           0           0           0           0 
         66           0   0.0330776           0      100000           0           0           0           0           0           0           0           0 
         67      0.3302   0.0207675           0      100000           0           0           0           0           0           0       33.02           0 
         68           0   0.0181545           0      100000           0           0           0           0           0           0           0           0 
         69           0   0.0277879           0      100000           0           0           0           0           0           0           0           0 
         70           0   0.0284411           0      100000           0           0           0           0           0           0           0           0 
         71           0   0.0493356           0      100000           0           0           0           0           0           0           0           0 
         72           0   0.0360227           0      100000           0           0           0           0           0           0           0           0 
         73           0   0.0450066           0      100000           0           0           0           0           0           0           0           0 
         74           0   0.0345323           0      100000           0           0           0           0           0           0           0           0 
         75           0   0.0322461           0      100000           0           0           0           0           0           0           0           0 
         76           0   0.0374888           0      100000           0           0           0           0           0           0           0           0 
         77           0   0.0544498           0      100000           0           0           0           0           0           0           0           0 
         78           0   0.0609843           0      100000           0           0           0           0           0           0           0           0 
         79           0   0.0400276           0      100000           0           0           0           0           0           0           0           0 
         80           0   0.0426773           0      100000           0           0           0           0           0           0           0           0 
         81           0   0.0495194           0      100000           0           0           0           0           0           0           0           0 
         82           0   0.0213156           0      100000           0           0           0           0           0           0           0           0 
         83           0   0.0532919           0      100000           0           0           0           0           0           0           0           0 
         84           0   0.0202407           0      100000           0           0           0           0           0           0           0           0 
         85           0    0.031149           0      100000           0           0           0           0           0           0           0           0 
         86           0   0.0570431           0      100000           0           0           0           0           0           0           0           0 
         87           0    0.105247           0      100000           0           0           0           0           0           0           0           0 
         88      0.1778   0.0280861           0      100000           0           0           0           0           0           0       17.78           0 
         89           0   0.0196718           0      100000           0           0           0           0           0           0           0           0 
         90           0   0.0548348           0      100000           0           0           0           0           0           0           0           0 
         91           0    0.102864           0      100000           0           0           0           0           0           0           0           0 
         92           0   0.0843482           0      100000           0           0           0           0           0           0           0           0 
         93           0   0.0848171           0      100000           0           0           0           0           0           0           0           0 
         94           0   0.0856659           0      100000           0           0           0           0           0           0           0           0 
         95      0.3048   0.0268984           0      100000           0           0           0           0           0           0       30.48           0 
         96           0   0.0512114           0      100000           0           0           0           0           0           0           0           0 
         97           0   0.0934679           0      100000           0           0           0           0           0           0           0           0 
         98           0   0.0521468           0      100000           0           0           0           0           0           0           0           0 
         99           0   0.0677887           0      100000           0           0           0           0           0           0           0           0 
        100           0   0.0665212           0      100000           0           0           0           0           0           0           0           0 
        101      0.1524   0.0243372           0      100000           0           0           0           0           0           0       15.24           0 
        102           0   0.0291874           0      100000           0           0           0           0           0           0           0           0 
        103           0   0.0305439           0      100000           0           0           0           0           0           0           0           0 
        104       0.254   0.0182384           0      100000           0           0           0           0           0           0        25.4           0 
        105       0.254   0.0272194           0      100000           0           0           0           0           0           0        25.4           0 
        106           0   0.0531356           0      100000           0           0           0           0           0           0           0           0 
        107           0   0.0637098           0      100000           0           0           0           0           0           0           0           0 
        108      0.2032   0.0363001           0      100000           0           0           0           0           0           0       20.32           0 
        109           0   0.0272709           0      100000           0           0           0           0           0           0           0           0 
        110           0   0.0378128           0      100000           0           0           0           0           0           0           0           0 
        111           0   0.0614735           0      100000           0           0           0           0           0           0           0           0 
        112           0   0.0244004           0      100000           0           0           0           0           0           0           0           0 
        113           0   0.0266794           0      100000           0           0           0           0           0           0           0           0 
        114      0.2032   0.0224756           0      100000           0           0           0           0           0           0       20.32           0 
        115      0.1524   0.0296008           0      100000           0           0           0           0           0           0       15.24           0 
        116      0.2794    0.062128           0      100000           0           0           0           0           0           0       27.94           0 
        117           0   0.0744149           0      100000           0           0           0           0           0           0           0           0 
        118           0    0.085328           0      100000           0           0           0           0           0           0           0           0 
        119           0   0.0856358           0      100000           0           0           0           0           0           0           0           0 
        120           0    0.128513           0      100000           0           0           0           0           0           0           0           0 
        121           0   0.0885457           0      100000           0           0           0           0           0           0           0           0 
        122      0.2286    0.044527           0      100000           0           0           0           0           0           0       22.86           0 
        123           0   0.0646663           0      100000           0           0           0           0           0           0           0           0 
        124           0   0.0771564           0      100000           0           0           0           0           0           0           0           0 
        125           0    0.062841           0      100000           0           0           0           0           0           0           0           0 
        126           0   0.0859091           0      100000           0           0           0           0           0           0           0           0 
        127      1.1684   0.0256543           0      100000           0           0           0           0           0           0      116.84           0 
        128      0.4572    0.031886           0      100000           0           0           0           0           0           0       45.72           0 
        129       0.381   0.0238247           0      100000           0           0           0           0           0           0        38.1           0 
        130           0   0.0578344           0      100000           0           0           0           0           0           0           0           0 
        131           0   0.0610478           0      100000           0           0           0           0           0           0           0           0 
        132           0   0.0766273           0      100000           0           0           0           0           0           0           0           0 
        133           0   0.0787681           0      100000           0           0           0           0           0           0           0           0 
        134           0   0.0639447   0.0211606      100000           0           0           0           0           0           0           0           0 
        135           0    0.040661   0.0464883      100000           0           0           0           0           0           0           0           0 
        136           0   0.0114057   0.0862272      100000           0           0           0           0           0           0           0           0 
        137           0           0    0.139215      100000           0           0           0           0           0           0           0           0 
        138           0           0     0.16124      100000           0           0           0           0           0           0           0           0 
        139      0.7874           0   0.0570547      100000           0           0           0           0           0           0       78.74           0 
        140      1.4732           0   0.0400443      100000           0           0           0           0           0           0      147.32           0 
        141      0.4318           0   0.0261416      100000           0           0           0           0           0           0       43.18           0 
        142           0           0   0.0969392      100000           0           0           0           0           0           0           0           0 
        143       1.016           0   0.0306128      100000           0           0           0           0           0           0       101.6           0 
        144           0           0    0.113042      100000           0           0           0           0           0           0           0           0 
        145           0           0    0.133348      100000           0           0           0           0           0           0           0           0 
        146      2.1844           0    0.075108      100000           0           0           0           0           0           0      218.44           0 
        147           0           0    0.227412      100000           0           0           0           0           0           0           0           0 
        148           0           0    0.275843      100000           0           0           0           0           0           0           0           0 
        149           0           0    0.283655      100000           0           0           0           0           0           0           0           0 
        150           0           0    0.302777      100000           0           0           0           0           0           0           0           0 
        151           0           0    0.362247      100000           0           0           0           0           0           0           0           0 
        152           0           0    0.385127      100000           0           0           0           0           0           0           0           0 
        153           0           0    0.504696      100000           0           0           0           0           0           0           0           0 
        154           0           0    0.588607      100000           0           0           0           0           0           0           0           0 
        155           0           0     0.62933      100000           0           0           0           0           0           0           0           0 
        156           0           0    0.708907      100000           0           0           0           0           0           0           0           0 
        157           0           0    0.525839      100000           0           0           0           0           0           0           0           0 
        158           0           0    0.528814      100000           0           0           0           0           0           0           0           0 
        159           0           0    0.459039      100000           0           0           0           0           0           0           0           0 
        160           0           0    0.469647      100000           0           0           0           0           0           0           0           0 
        161      0.2286           0     0.42806      100000           0           0           0           0           0           0       22.86           0 
        162           0           0    0.540477      100000           0           0           0           0           0           0           0           0 
        163           0           0    0.471786      100000           0           0           0           0           0           0           0           0 
        164           0           0    0.607334      100000           0           0           0           0           0           0           0           0 
        165           0           0    0.640872      100000           0           0           0           0           0           0           0           0 
        166           0           0    0.679308      100000           0           0           0           0           0           0           0           0 
        167           0           0    0.626354      100000           0           0           0           0           0           0           0           0 
        168           0           0    0.564287      100000           0           0           0           0           0           0           0           0 
        169           0           0    0.546855      100000           0           0           0           0           0           0           0           0 
        170           0           0     0.46296      100000           0           0           0           0           0           0           0           0 
        171      1.4224           0    0.378039      100000           0           0           0           0           0           0      142.24           0 
        172       1.651           0    0.545743      100000           0           0           0           0           0           0       165.1           0 
        173       1.651           0    0.614092      100000           0           0           0           0           0           0       165.1           0 
        174       1.651           0    0.482681      100000           0           0           0           0           0           0       165.1           0 
        175       0.381           0    0.454576      100000           0           0           0           0           0           0        38.1           0 
        176       1.651           0    0.498316      100000           0           0           0           0           0           0       165.1           0 
        177           0           0    0.575808      100000           0           0           0           0           0           0           0           0 
        178       1.651           0    0.560813      100000           0           0           0           0           0           0       165.1           0 
        179           0           0    0.604197      100000           0           0           0           0           0           0           0           0 
        180       1.651           0    0.605891      100000           0           0           0           0           0           0       165.1           0 
        181       1.651           0    0.610978      100000           0           0           0           0           0           0       165.1           0 
        182           0           0    0.671042      100000           0           0           0           0           0           0           0           0 
        183       1.651           0    0.699001      100000           0           0           0           0           0           0       165.1           0 
        184           0           0    0.632903      100000           0           0           0           0           0           0           0           0 
        185           0           0    0.641796      100000           0           0           0           0           0           0           0           0 
        186           0           0    0.580026      100000           0           0           0           0           0           0           0           0 
        187           0           0    0.606123      100000           0           0           0           0           0           0           0           0 