Pcp_File_Version=5
*** BLOCK A: BASIC INFORMATION *****************************************
Heading
Welcome to HYDRUS-1D
LUnit  TUnit  MUnit  (indicated units are obligatory for all input data)
cm
days
mmol
lWat   lChem lTemp  lSink lRoot lShort lWDep lScreen lVariabBC lEquil lInverse
 t     t     f      t     t     f      f     t       t         f         f
lSnow  lHP1   lMeteo  lVapor lActiveU lFluxes lIrrig  lPart   lCosmic lDummy
 f       f       f       f       f       t       f       f       f       f
NMat    NLay  CosAlpha
  3       1       1
*** BLOCK B: WATER FLOW INFORMATION ************************************
MaxIt   TolTh   TolH       (maximum number of iterations and tolerances)
  10    0.001      1
TopInf WLayer KodTop InitCond
 t     f      -1       f
BotInf qGWLF FreeD SeepF KodBot DrainF  hSeep
 f     f     t     f     -1      f      0
    hTab1   hTabN
     1e-06   10000
    Model   Hysteresis
      8          0
   thr     ths    Alfa      n         Ks       l
 0.0792    0.47    0.03    1.35          6     0.5 
 0.0813  0.4231   0.019    1.45          8     0.5 
   0.05    0.37  0.0353    3.18     642.98     0.5 
  thrFr   thsFr  AlfaFr     nFr       KsFr     lFr       W    beta   gamma       a        Ka
0.01298 0.43903 0.017304  1.3202     289.89     0.5    0.04    4.74    0.01   2.197     1.4143 
      0     0.3   0.079     1.6       75.5     0.5    0.04       2     0.4     7.8       0.01 
   0.01     0.8    0.01    1.01     386.52     0.5    0.04       1     0.4      10      1.497 
     qTop
      0.15
*** BLOCK C: TIME INFORMATION ******************************************
        dt       dtMin       dtMax     DMul    DMul2  ItMin ItMax  MPL
      0.001       1e-05           5     1.3     0.7     3     7   365
      tInit        tMax
          0        1698
  lPrintD  nPrintSteps tPrintInterval lEnter
     f           1             1       f
TPrint(1),TPrint(2),...,TPrint(MPL)
       1334        1335        1336        1337        1338        1339 
       1340        1341        1342        1343        1344        1345 
       1346        1347        1348        1349        1350        1351 
       1352        1353        1354        1355        1356        1357 
       1358        1359        1360        1361        1362        1363 
       1364        1365        1366        1367        1368        1369 
       1370        1371        1372        1373        1374        1375 
       1376        1377        1378        1379        1380        1381 
       1382        1383        1384        1385        1386        1387 
       1388        1389        1390        1391        1392        1393 
       1394        1395        1396        1397        1398        1399 
       1400        1401        1402        1403        1404        1405 
       1406        1407        1408        1409        1410        1411 
       1412        1413        1414        1415        1416        1417 
       1418        1419        1420        1421        1422        1423 
       1424        1425        1426        1427        1428        1429 
       1430        1431        1432        1433        1434        1435 
       1436        1437        1438        1439        1440        1441 
       1442        1443        1444        1445        1446        1447 
       1448        1449        1450        1451        1452        1453 
       1454        1455        1456        1457        1458        1459 
       1460        1461        1462        1463        1464        1465 
       1466        1467        1468        1469        1470        1471 
       1472        1473        1474        1475        1476        1477 
       1478        1479        1480        1481        1482        1483 
       1484        1485        1486        1487        1488        1489 
       1490        1491        1492        1493        1494        1495 
       1496        1497        1498        1499        1500        1501 
       1502        1503        1504        1505        1506        1507 
       1508        1509        1510        1511        1512        1513 
       1514        1515        1516        1517        1518        1519 
       1520        1521        1522        1523        1524        1525 
       1526        1527        1528        1529        1530        1531 
       1532        1533        1534        1535        1536        1537 
       1538        1539        1540        1541        1542        1543 
       1544        1545        1546        1547        1548        1549 
       1550        1551        1552        1553        1554        1555 
       1556        1557        1558        1559        1560        1561 
       1562        1563        1564        1565        1566        1567 
       1568        1569        1570        1571        1572        1573 
       1574        1575        1576        1577        1578        1579 
       1580        1581        1582        1583        1584        1585 
       1586        1587        1588        1589        1590        1591 
       1592        1593        1594        1595        1596        1597 
       1598        1599        1600        1601        1602        1603 
       1604        1605        1606        1607        1608        1609 
       1610        1611        1612        1613        1614        1615 
       1616        1617        1618        1619        1620        1621 
       1622        1623        1624        1625        1626        1627 
       1628        1629        1630        1631        1632        1633 
       1634        1635        1636        1637        1638        1639 
       1640        1641        1642        1643        1644        1645 
       1646        1647        1648        1649        1650        1651 
       1652        1653        1654        1655        1656        1657 
       1658        1659        1660        1661        1662        1663 
       1664        1665        1666        1667        1668        1669 
       1670        1671        1672        1673        1674        1675 
       1676        1677        1678        1679        1680        1681 
       1682        1683        1684        1685        1686        1687 
       1688        1689        1690        1691        1692        1693 
       1694        1695        1696        1697        1698 
*** BLOCK D: ROOT GROWTH INFORMATION ***********************************
iRootDepthEntry
        2
     iRFak     tRMin     tRMed     tRMax     xRMin     xRMed     xRMax   tPeriod
        1       115         0       245         0         0        60      365
*** BLOCK F: SOLUTE TRANSPORT INFORMATION *****************************************************
 Epsi  lUpW  lArtD lTDep    cTolA    cTolR   MaxItC    PeCr  No.Solutes  lTort   iBacter   lFiltr  nChPar
  0.5     f     f     f         0         0     1        2        1       t       0        f       16
iNonEqul lWatDep   lDualNEq   lInitM   lInitEq    lTort    lHP1BC   lFumigant    lPFAS   lSurfact   lCFTr
   0         f         f         f         f         f         t         f         f         f         f
     Bulk.d.     DisperL.      Frac      Mobile WC (1..NMat)
        1.5        17.5           1           0 
        1.5        17.5           1           0 
        1.5        17.5           1           0 
         DifW       DifG                n-th solute
       1.74           0 
         Kd          Nu        Beta       Henry       SnkL1       SnkS1       SnkG1       SnkL1'      SnkS1'      SnkG1'      SnkL0       SnkS0       SnkG0        Alfa
          0           0           1           0           0           0           0           0           0           0           0           0           0           0 
          0           0           1           0           0           0           0           0           0           0           0           0           0           0 
          0           0           1           0           0           0           0           0           0           0           0           0           0           0 
      kTopSolute  SolTop    kBotSolute  SolBot
          1           0           0           0 
      tPulse
       1698
*** BLOCK G: ROOT WATER UPTAKE INFORMATION *****************************
     Model  (0 - Feddes, 1 - S shape)  cRootMax    OmegaC
        1                                   0           1
       h50       P3
     -800         3
     Solute Reduction
        f
*** END OF INPUT FILE 'SELECTOR.IN' ************************************
