Pcp_File_Version=5
*** BLOCK I: ATMOSPHERIC INFORMATION  **********************************
   MaxAL                    (MaxAL = number of atmospheric data-records)
      862
 DailyVar  SinusVar  lLay  lBCCycles lInterc lHeadInt lDummy  lDummy  lDummy  lDummy
       f       f       f       f       f       f       f       f       f       f
 hCritS                 (max. allowed pressure head at the soil surface)
      0
       tAtm        Prec       rSoil       rRoot      hCritA          rB          hB          ht    RootDepth
  1            0            0.0392            0            100000            0            0            0            0
  2            0            0.0509            0            100000            0            0            0            0
  3            0            0.0412            0            100000            0            0            0            0
  4            0            0.04            0            100000            0            0            0            0
  5            0            0.0319            0            100000            0            0            0            0
  6            0            0.053            0            100000            0            0            0            0
  7            0.13            0.0055            0            100000            0            0            0            0
  8            0            0.002            0            100000            0            0            0            0
  9            0            0.0051            0            100000            0            0            0            0
  10            0            0.0297            0            100000            0            0            0            0
  11            0            0.0384            0            100000            0            0            0            0
  12            0            0.0454            0            100000            0            0            0            0
  13            0            0.0389            0            100000            0            0            0            0
  14            0            0.011            0            100000            0            0            0            0
  15            0            0.0322            0            100000            0            0            0            0
  16            0            0.0108            0            100000            0            0            0            0
  17            0            0.0286            0            100000            0            0            0            0
  18            0            0.0115            0            100000            0            0            0            0
  19            0            0.0332            0            100000            0            0            0            0
  20            0            0.0199            0            100000            0            0            0            0
  21            0            0.0039            0            100000            0            0            0            0
  22            0            0.0033            0            100000            0            0            0            0
  23            0            0.005            0            100000            0            0            0            0
  24            0            0.0144            0            100000            0            0            0            0
  25            0            0.0031            0            100000            0            0            0            0
  26            0            0.0036            0            100000            0            0            0            0
  27            0            0.0062            0            100000            0            0            0            0
  28            0            0.0204            0            100000            0            0            0            0
  29            0            0.0054            0            100000            0            0            0            0
  30            0            0.0116            0            100000            0            0            0            0
  31            0            0.0474            0            100000            0            0            0            0
  32            0            0.0631            0            100000            0            0            0            0
  33            0.2            0.0399            0            100000            0            0            0            0
  34            0            0.0071            0            100000            0            0            0            0
  35            0            0.0131            0            100000            0            0            0            0
  36            0.28            0.0071            0            100000            0            0            0            0
  37            0            0.0038            0            100000            0            0            0            0
  38            0            0.0028            0            100000            0            0            0            0
  39            0            0.0037            0            100000            0            0            0            0
  40            0            0.0023            0            100000            0            0            0            0
  41            0            0.0017            0            100000            0            0            0            0
  42            0            0.0022            0            100000            0            0            0            0
  43            0            0.003            0            100000            0            0            0            0
  44            0            0.0024            0            100000            0            0            0            0
  45            0            0.002            0            100000            0            0            0            0
  46            0            0.0047            0            100000            0            0            0            0
  47            0            0.0066            0            100000            0            0            0            0
  48            0            0.0071            0            100000            0            0            0            0
  49            0            0.014            0            100000            0            0            0            0
  50            0            0.0278            0            100000            0            0            0            0
  51            0            0.021            0            100000            0            0            0            0
  52            0            0.0387            0            100000            0            0            0            0
  53            0            0.0477            0            100000            0            0            0            0
  54            0            0.0206            0            100000            0            0            0            0
  55            0            0.0203            0            100000            0            0            0            0
  56            0            0.0443            0            100000            0            0            0            0
  57            0            0.0264            0            100000            0            0            0            0
  58            0            0.0122            0            100000            0            0            0            0
  59            0            0.0377            0            100000            0            0            0            0
  60            0            0.0584            0            100000            0            0            0            0
  61            0            0.0558            0            100000            0            0            0            0
  62            0            0.0498            0            100000            0            0            0            0
  63            0            0.0331            0            100000            0            0            0            0
  64            0            0.0524            0            100000            0            0            0            0
  65            0            0.0434            0            100000            0            0            0            0
  66            0            0.0331            0            100000            0            0            0            0
  67            0.33            0.0208            0            100000            0            0            0            0
  68            0            0.0182            0            100000            0            0            0            0
  69            0            0.0278            0            100000            0            0            0            0
  70            0            0.0284            0            100000            0            0            0            0
  71            0            0.0493            0            100000            0            0            0            0
  72            0            0.036            0            100000            0            0            0            0
  73            0            0.045            0            100000            0            0            0            0
  74            0            0.0345            0            100000            0            0            0            0
  75            0            0.0322            0            100000            0            0            0            0
  76            0            0.0375            0            100000            0            0            0            0
  77            0            0.0544            0            100000            0            0            0            0
  78            0            0.061            0            100000            0            0            0            0
  79            0            0.04            0            100000            0            0            0            0
  80            0            0.0427            0            100000            0            0            0            0
  81            0            0.0495            0            100000            0            0            0            0
  82            0            0.0213            0            100000            0            0            0            0
  83            0            0.0533            0            100000            0            0            0            0
  84            0            0.0202            0            100000            0            0            0            0
  85            0            0.0311            0            100000            0            0            0            0
  86            0            0.057            0            100000            0            0            0            0
  87            0            0.1052            0            100000            0            0            0            0
  88            0.18            0.0281            0            100000            0            0            0            0
  89            0            0.0197            0            100000            0            0            0            0
  90            0            0.0548            0            100000            0            0            0            0
  91            0            0.1029            0            100000            0            0            0            0
  92            0            0.0843            0            100000            0            0            0            0
  93            0            0.0848            0            100000            0            0            0            0
  94            0            0.0857            0            100000            0            0            0            0
  95            0.3            0.0269            0            100000            0            0            0            0
  96            0            0.0512            0            100000            0            0            0            0
  97            0            0.0935            0            100000            0            0            0            0
  98            0            0.0521            0            100000            0            0            0            0
  99            0            0.0678            0            100000            0            0            0            0
  100            0            0.0665            0            100000            0            0            0            0
  101            0.15            0.0243            0            100000            0            0            0            0
  102            0            0.0292            0            100000            0            0            0            0
  103            0            0.0305            0            100000            0            0            0            0
  104            0.25            0.0182            0            100000            0            0            0            0
  105            0.25            0.0272            0            100000            0            0            0            0
  106            0            0.0531            0            100000            0            0            0            0
  107            0            0.0637            0            100000            0            0            0            0
  108            0.2            0.0363            0            100000            0            0            0            0
  109            0            0.0273            0            100000            0            0            0            0
  110            0            0.0378            0            100000            0            0            0            0
  111            0            0.0615            0            100000            0            0            0            0
  112            0            0.0244            0            100000            0            0            0            0
  113            0            0.0267            0            100000            0            0            0            0
  114            0.2            0.0225            0            100000            0            0            0            0
  115            0.15            0.0296            0            100000            0            0            0            0
  116            0.28            0.0621            0            100000            0            0            0            0
  117            0            0.0744            0            100000            0            0            0            0
  118            0            0.0853            0            100000            0            0            0            0
  119            0            0.0856            0            100000            0            0            0            0
  120            0            0.1285            0            100000            0            0            0            0
  121            0            0.0885            0            100000            0            0            0            0
  122            0.23            0.0445            0            100000            0            0            0            0
  123            0            0.0647            0            100000            0            0            0            0
  124            0            0.0772            0            100000            0            0            0            0
  125            0            0.0628            0            100000            0            0            0            0
  126            0            0.0859            0            100000            0            0            0            0
  127            1.17            0.0257            0            100000            0            0            0            0
  128            0.46            0.0319            0            100000            0            0            0            0
  129            0.38            0.0238            0            100000            0            0            0            0
  130            0            0.0578            0            100000            0            0            0            0
  131            0            0.061            0            100000            0            0            0            0
  132            0            0.0766            0            100000            0            0            0            0
  133            0            0.0788            0            100000            0            0            0            0
  134            0            0.0851            0            100000            0            0            0            0
  135            0            0.0838            0            100000            0            0            0            0
  136            0            0.0803            0            100000            0            0            0            0
  137            0            0.0726            0            100000            0            0            0            0
  138            0            0.0536            0            100000            0            0            0            0
  139            0.79            0.0162            0            100000            0            0            0            0
  140            1.47            0.0114            0            100000            0            0            0            0
  141            0.43            0.0078            0            100000            0            0            0            0
  142            0            0.0283            0            100000            0            0            0            0
  143            1.02            0.0083            0            100000            0            0            0            0
  144            0            0.0227            0            100000            0            0            0            0
  145            0            0.0188            0            100000            0            0            0            0
  146            2.18            0.0078            0            100000            0            0            0            0
  147            0            0.0121            0            100000            0            0            0            0
  148            0            0.0037            0            100000            0            0            0            0
  149            0            0            0            100000            0            0            0            0
  150            0            0            0            100000            0            0            0            0
  151            0            0            0            100000            0            0            0            0
  152            0            0            0            100000            0            0            0            0
  153            0            0            0            100000            0            0            0            0
  154            0            0            0            100000            0            0            0            0
  155            0            0            0            100000            0            0            0            0
  156            0            0            0            100000            0            0            0            0
  157            0            0            0            100000            0            0            0            0
  158            0            0            0            100000            0            0            0            0
  159            0            0            0            100000            0            0            0            0
  160            0            0            0            100000            0            0            0            0
  161            0.23            0            0            100000            0            0            0            0
  162            0            0            0            100000            0            0            0            0
  163            0            0            0            100000            0            0            0            0
  164            0            0            0            100000            0            0            0            0
  165            0            0            0            100000            0            0            0            0
  166            0            0            0            100000            0            0            0            0
  167            0            0            0            100000            0            0            0            0
  168            0            0            0            100000            0            0            0            0
  169            0            0            0            100000            0            0            0            0
  170            0            0            0            100000            0            0            0            0
  171            1.42            0            0            100000            0            0            0            0
  172            1.65            0            0            100000            0            0            0            0
  173            1.65            0            0            100000            0            0            0            0
  174            1.65            0            0            100000            0            0            0            0
  175            0.38            0            0            100000            0            0            0            0
  176            1.65            0            0            100000            0            0            0            0
  177            0            0            0            100000            0            0            0            0
  178            1.65            0            0            100000            0            0            0            0
  179            0            0            0            100000            0            0            0            0
  180            1.65            0            0            100000            0            0            0            0
  181            1.65            0            0            100000            0            0            0            0
  182            0            0            0            100000            0            0            0            0
  183            1.65            0            0            100000            0            0            0            0
  184            0            0            0            100000            0            0            0            0
  185            0            0            0            100000            0            0            0            0
  186            0            0            0            100000            0            0            0            0
  187            0            0            0            100000            0            0            0            0
  188            0            0            0            100000            0            0            0            0
  189            0            0            0            100000            0            0            0            0
  190            0            0            0            100000            0            0            0            0
  191            0            0            0            100000            0            0            0            0
  192            0            0            0            100000            0            0            0            0
  193            0            0            0            100000            0            0            0            0
  194            0.51            0            0            100000            0            0            0            0
  195            1.65            0            0            100000            0            0            0            0
  196            1.65            0            0            100000            0            0            0            0
  197            1.75            0            0            100000            0            0            0            0
  198            1.65            0            0            100000            0            0            0            0
  199            1.65            0            0            100000            0            0            0            0
  200            0.18            0            0            100000            0            0            0            0
  201            1.9            0            0            100000            0            0            0            0
  202            0            0            0            100000            0            0            0            0
  203            0            0            0            100000            0            0            0            0
  204            0            0            0            100000            0            0            0            0
  205            0            0            0            100000            0            0            0            0
  206            0            0            0            100000            0            0            0            0
  207            0            0            0            100000            0            0            0            0
  208            0            0            0            100000            0            0            0            0
  209            0            0            0            100000            0            0            0            0
  210            0            0            0            100000            0            0            0            0
  211            0            0            0            100000            0            0            0            0
  212            0            0            0            100000            0            0            0            0
  213            0            0            0            100000            0            0            0            0
  214            0.13            0            0            100000            0            0            0            0
  215            0            0            0            100000            0            0            0            0
  216            0            0            0            100000            0            0            0            0
  217            0            0            0            100000            0            0            0            0
  218            0            0            0            100000            0            0            0            0
  219            0            0            0            100000            0            0            0            0
  220            1.02            0            0            100000            0            0            0            0
  221            0            0            0            100000            0            0            0            0
  222            0            0            0            100000            0            0            0            0
  223            0            0            0            100000            0            0            0            0
  224            0            0            0            100000            0            0            0            0
  225            0            0            0            100000            0            0            0            0
  226            0            0            0            100000            0            0            0            0
  227            0            0            0            100000            0            0            0            0
  228            0            0.1184            0            100000            0            0            0            0
  229            1.63            0.0373            0            100000            0            0            0            0
  230            1.93            0.0104            0            100000            0            0            0            0
  231            0            0.0543            0            100000            0            0            0            0
  232            0.13            0.05            0            100000            0            0            0            0
  233            0.15            0.0312            0            100000            0            0            0            0
  234            0            0.0801            0            100000            0            0            0            0
  235            0            0.0757            0            100000            0            0            0            0
  236            0            0.0642            0            100000            0            0            0            0
  237            0            0.0648            0            100000            0            0            0            0
  238            0            0.0653            0            100000            0            0            0            0
  239            0            0.0606            0            100000            0            0            0            0
  240            0            0.0659            0            100000            0            0            0            0
  241            0            0.0705            0            100000            0            0            0            0
  242            0            0.0724            0            100000            0            0            0            0
  243            0            0.0789            0            100000            0            0            0            0
  244            0            0.0698            0            100000            0            0            0            0
  245            0            0.0575            0            100000            0            0            0            0
  246            0            0.0588            0            100000            0            0            0            0
  247            0            0.0644            0            100000            0            0            0            0
  248            0            0.0965            0            100000            0            0            0            0