Pcp_File_Version=5
*** BLOCK A: BASIC INFORMATION *****************************************
Heading
Tester project for R 
LUnit  TUnit  MUnit  (indicated units are obligatory for all input data)
cm
days
mmol
lWat   lChem lTemp  lSink lRoot lShort lWDep lScreen lVariabBC lEquil lInverse
 f     f     f      f     f     f      f     t       f         t         f
lSnow  lHP1   lMeteo  lVapor lActiveU lFluxes lIrrig  lPart   lCosmic lDummy
 f       f       f       f       f       t       f       f       f       f
NMat    NLay  CosAlpha
  1       1       1
*** BLOCK B: WATER FLOW INFORMATION ************************************
MaxIt   TolTh   TolH       (maximum number of iterations and tolerances)
  10    0.001      1
TopInf WLayer KodTop InitCond
 f     f       1       f
BotInf qGWLF FreeD SeepF KodBot DrainF  hSeep
 f     f     t     f     -1      f      0
    hTab1   hTabN
     1e-06   10000
    Model   Hysteresis
      0          0
   thr     ths    Alfa      n         Ks       l
  0.045    0.43   0.145    2.68      712.8     0.5 
*** BLOCK C: TIME INFORMATION ******************************************
        dt       dtMin       dtMax     DMul    DMul2  ItMin ItMax  MPL
      0.001       1e-05           5     1.3     0.7     3     7     2
      tInit        tMax
          0         100
  lPrintD  nPrintSteps tPrintInterval lEnter
     t           4         0.001       f
TPrint(1),TPrint(2),...,TPrint(MPL)
         50         100 
*** END OF INPUT FILE 'SELECTOR.IN' ************************************
